// COE 347 - FINAL PROJECT MESH (expansion scale: 1.0)


FoamFile
{
    version  2.0;
    format   ascii;
    class    dictionary;
    object   blockMeshDict;
}

convertToMeters 1.0;

vertices
(
	(0.0000000000000000e+00 0.0000000000000000e+00 0.0000000000000000e+00) // 0
	(0.0000000000000000e+00 4.9952411079092894e-02 -2.1809693682667999e-03) // 1
	(6.6949999999999998e-01 1.7882963166315255e-01 -7.8078703383951441e-03) // 2
	(9.9999867499999995e-01 1.7882963166315255e-01 -7.8078703383951441e-03) // 3
	(9.9999867499999995e-01 0.0000000000000000e+00 0.0000000000000000e+00) // 4
	(6.6949999999999998e-01 0.0000000000000000e+00 0.0000000000000000e+00) // 5
	(0.0000000000000000e+00 4.9952411079092894e-02 2.1809693682667999e-03) // 6
	(6.6949999999999998e-01 1.7882963166315255e-01 7.8078703383951441e-03) // 7
	(9.9999867499999995e-01 1.7882963166315255e-01 7.8078703383951441e-03) // 8
);

blocks
(	// Block 0
	hex (0 5 5 0 1 2 2 1) (300 1 112) simpleGrading (1 1 1)

	// Block 1
	hex (5 4 4 5 2 3 3 2) (148 1 112) simpleGrading (1 1 1)


);

edges
(
    spline 1 2
    (
		(5.00000000e-04 4.99524111e-02 -2.18096937e-03)
		(1.00000000e-03 4.99524111e-02 -2.18096937e-03)
		(1.50000000e-03 4.99524111e-02 -2.18096937e-03)
		(2.00000000e-03 5.00523159e-02 -2.18533131e-03)
		(2.50000000e-03 5.00523159e-02 -2.18533131e-03)
		(3.00000000e-03 5.01522207e-02 -2.18969325e-03)
		(3.50000000e-03 5.02521255e-02 -2.19405518e-03)
		(4.00000000e-03 5.03520304e-02 -2.19841712e-03)
		(4.50000000e-03 5.04519352e-02 -2.20277906e-03)
		(5.00000000e-03 5.06517448e-02 -2.21150294e-03)
		(5.40000000e-03 5.07516497e-02 -2.21586488e-03)
		(5.90000000e-03 5.09514593e-02 -2.22458876e-03)
		(6.50000000e-03 5.11512689e-02 -2.23331263e-03)
		(7.00000000e-03 5.12511738e-02 -2.23767457e-03)
		(9.07000000e-02 8.57183374e-02 -3.74254344e-03)
		(1.18100000e-01 9.61084389e-02 -4.19618506e-03)
		(1.43300000e-01 1.04999968e-01 -4.58439761e-03)
		(1.68800000e-01 1.13192164e-01 -4.94207659e-03)
		(1.95800000e-01 1.21084644e-01 -5.28666975e-03)
		(2.24800000e-01 1.28877221e-01 -5.62690097e-03)
		(2.56300000e-01 1.36370082e-01 -5.95404638e-03)
		(2.90900000e-01 1.43663134e-01 -6.27246790e-03)
		(3.29100000e-01 1.50656472e-01 -6.57780361e-03)
		(3.71500000e-01 1.57350095e-01 -6.87005351e-03)
		(4.18500000e-01 1.63444289e-01 -7.13613177e-03)
		(4.71000000e-01 1.68939054e-01 -7.37603840e-03)
		(5.29700000e-01 1.73534676e-01 -7.57668759e-03)
		(5.95600000e-01 1.76931440e-01 -7.72499350e-03)
		)

		spline 6 7
		(
		(5.00000000e-04 4.99524111e-02 2.18096937e-03)
		(1.00000000e-03 4.99524111e-02 2.18096937e-03)
		(1.50000000e-03 4.99524111e-02 2.18096937e-03)
		(2.00000000e-03 5.00523159e-02 2.18533131e-03)
		(2.50000000e-03 5.00523159e-02 2.18533131e-03)
		(3.00000000e-03 5.01522207e-02 2.18969325e-03)
		(3.50000000e-03 5.02521255e-02 2.19405518e-03)
		(4.00000000e-03 5.03520304e-02 2.19841712e-03)
		(4.50000000e-03 5.04519352e-02 2.20277906e-03)
		(5.00000000e-03 5.06517448e-02 2.21150294e-03)
		(5.40000000e-03 5.07516497e-02 2.21586488e-03)
		(5.90000000e-03 5.09514593e-02 2.22458876e-03)
		(6.50000000e-03 5.11512689e-02 2.23331263e-03)
		(7.00000000e-03 5.12511738e-02 2.23767457e-03)
		(9.07000000e-02 8.57183374e-02 3.74254344e-03)
		(1.18100000e-01 9.61084389e-02 4.19618506e-03)
		(1.43300000e-01 1.04999968e-01 4.58439761e-03)
		(1.68800000e-01 1.13192164e-01 4.94207659e-03)
		(1.95800000e-01 1.21084644e-01 5.28666975e-03)
		(2.24800000e-01 1.28877221e-01 5.62690097e-03)
		(2.56300000e-01 1.36370082e-01 5.95404638e-03)
		(2.90900000e-01 1.43663134e-01 6.27246790e-03)
		(3.29100000e-01 1.50656472e-01 6.57780361e-03)
		(3.71500000e-01 1.57350095e-01 6.87005351e-03)
		(4.18500000e-01 1.63444289e-01 7.13613177e-03)
		(4.71000000e-01 1.68939054e-01 7.37603840e-03)
		(5.29700000e-01 1.73534676e-01 7.57668759e-03)
		(5.95600000e-01 1.76931440e-01 7.72499350e-03)

	)
);

boundary
(
    inlet
    {
        type patch;
        faces
        (
            (0 6 1 0)
        );
    }
    outlet
    {
        type patch;
        faces
        (
            (4 8 3 4)   
        );
    }
    nozzleCeiling
    {
        type wall;
        faces
        (
            (6 7 2 1)
        );
    }
    ambientCeiling
    {
        type patch;
        faces
        (
            (7 8 3 2)
        );
    }
    front
    {
        type wedge;
        faces
        (
            (0 5 7 6)    
            (5 4 8 7)    
        );
    }
    back
    {
        type wedge;
        faces
        (
            (0 5 2 1)
            (5 4 3 2)  
        );
    }
);

mergePatchPairs
(
);