// COE 347 - FINAL PROJECT MESH (expansion scale: 0.9)


FoamFile
{
    version  2.0;
    format   ascii;
    class    dictionary;
    object   blockMeshDict;
}

convertToMeters 1.0;

vertices
(
	(0.0000000000000000e+00 0.0000000000000000e+00 0.0000000000000000e+00) // 0
	(0.0000000000000000e+00 4.9952411079092894e-02 -2.1809693682667999e-03) // 1
	(6.6949999999999998e-01 1.6594190960474661e-01 -7.2451802413823103e-03) // 2
	(9.9999867499999995e-01 1.6594190960474661e-01 -7.2451802413823103e-03) // 3
	(9.9999867499999995e-01 0.0000000000000000e+00 0.0000000000000000e+00) // 4
	(6.6949999999999998e-01 0.0000000000000000e+00 0.0000000000000000e+00) // 5
	(0.0000000000000000e+00 4.9952411079092894e-02 2.1809693682667999e-03) // 6
	(6.6949999999999998e-01 1.6594190960474661e-01 7.2451802413823103e-03) // 7
	(9.9999867499999995e-01 1.6594190960474661e-01 7.2451802413823103e-03) // 8
);

blocks
(	// Block 0
	hex (0 5 5 0 1 2 2 1) (423 1 158) simpleGrading (1 1 1)

	// Block 1
	hex (5 4 4 5 2 3 3 2) (209 1 158) simpleGrading (1 1 1)


);

edges
(
    spline 1 2
    (
		(5.00000000e-04 4.99524111e-02 -2.18096937e-03)
		(1.00000000e-03 4.99524111e-02 -2.18096937e-03)
		(1.50000000e-03 4.99524111e-02 -2.18096937e-03)
		(2.00000000e-03 5.00423254e-02 -2.18489511e-03)
		(2.50000000e-03 5.00423254e-02 -2.18489511e-03)
		(3.00000000e-03 5.01322398e-02 -2.18882086e-03)
		(3.50000000e-03 5.02221541e-02 -2.19274660e-03)
		(4.00000000e-03 5.03120684e-02 -2.19667235e-03)
		(4.50000000e-03 5.04019828e-02 -2.20059809e-03)
		(5.00000000e-03 5.05818115e-02 -2.20844958e-03)
		(5.40000000e-03 5.06717258e-02 -2.21237533e-03)
		(5.90000000e-03 5.08515545e-02 -2.22022682e-03)
		(6.50000000e-03 5.10313832e-02 -2.22807831e-03)
		(7.00000000e-03 5.11212975e-02 -2.23200405e-03)
		(9.07000000e-02 8.21417448e-02 -3.58638603e-03)
		(1.18100000e-01 9.14928361e-02 -3.99466349e-03)
		(1.43300000e-01 9.94952124e-02 -4.34405479e-03)
		(1.68800000e-01 1.06868188e-01 -4.66596587e-03)
		(1.95800000e-01 1.13971421e-01 -4.97609971e-03)
		(2.24800000e-01 1.20984740e-01 -5.28230781e-03)
		(2.56300000e-01 1.27728315e-01 -5.57673867e-03)
		(2.90900000e-01 1.34292062e-01 -5.86331805e-03)
		(3.29100000e-01 1.40586066e-01 -6.13812019e-03)
		(3.71500000e-01 1.46610327e-01 -6.40114510e-03)
		(4.18500000e-01 1.52095101e-01 -6.64061553e-03)
		(4.71000000e-01 1.57040390e-01 -6.85653150e-03)
		(5.29700000e-01 1.61176450e-01 -7.03711576e-03)
		(5.95600000e-01 1.64233537e-01 -7.17059109e-03)
		)

		spline 6 7
		(
		(5.00000000e-04 4.99524111e-02 2.18096937e-03)
		(1.00000000e-03 4.99524111e-02 2.18096937e-03)
		(1.50000000e-03 4.99524111e-02 2.18096937e-03)
		(2.00000000e-03 5.00423254e-02 2.18489511e-03)
		(2.50000000e-03 5.00423254e-02 2.18489511e-03)
		(3.00000000e-03 5.01322398e-02 2.18882086e-03)
		(3.50000000e-03 5.02221541e-02 2.19274660e-03)
		(4.00000000e-03 5.03120684e-02 2.19667235e-03)
		(4.50000000e-03 5.04019828e-02 2.20059809e-03)
		(5.00000000e-03 5.05818115e-02 2.20844958e-03)
		(5.40000000e-03 5.06717258e-02 2.21237533e-03)
		(5.90000000e-03 5.08515545e-02 2.22022682e-03)
		(6.50000000e-03 5.10313832e-02 2.22807831e-03)
		(7.00000000e-03 5.11212975e-02 2.23200405e-03)
		(9.07000000e-02 8.21417448e-02 3.58638603e-03)
		(1.18100000e-01 9.14928361e-02 3.99466349e-03)
		(1.43300000e-01 9.94952124e-02 4.34405479e-03)
		(1.68800000e-01 1.06868188e-01 4.66596587e-03)
		(1.95800000e-01 1.13971421e-01 4.97609971e-03)
		(2.24800000e-01 1.20984740e-01 5.28230781e-03)
		(2.56300000e-01 1.27728315e-01 5.57673867e-03)
		(2.90900000e-01 1.34292062e-01 5.86331805e-03)
		(3.29100000e-01 1.40586066e-01 6.13812019e-03)
		(3.71500000e-01 1.46610327e-01 6.40114510e-03)
		(4.18500000e-01 1.52095101e-01 6.64061553e-03)
		(4.71000000e-01 1.57040390e-01 6.85653150e-03)
		(5.29700000e-01 1.61176450e-01 7.03711576e-03)
		(5.95600000e-01 1.64233537e-01 7.17059109e-03)

	)
);

boundary
(
    inlet
    {
        type patch;
        faces
        (
            (0 6 1 0)
        );
    }
    outlet
    {
        type patch;
        faces
        (
            (4 8 3 4)   
        );
    }
    nozzleCeiling
    {
        type wall;
        faces
        (
            (6 7 2 1)
        );
    }
    ambientCeiling
    {
        type patch;
        faces
        (
            (7 8 3 2)
        );
    }
    front
    {
        type wedge;
        faces
        (
            (0 5 7 6)    
            (5 4 8 7)    
        );
    }
    back
    {
        type wedge;
        faces
        (
            (0 5 2 1)
            (5 4 3 2)  
        );
    }
);

mergePatchPairs
(
);