// COE 347 - FINAL PROJECT MESH (right)


FoamFile
{
    version  2.0;
    format   ascii;
    class    dictionary;
    object   blockMeshDict;
}

convertToMeters 1.0;

vertices
(
	(0.0000000000000000e+00 0.0000000000000000e+00 -2.1809693682667999e-03) // 0
	(0.0000000000000000e+00 7.4812657000288885e-02 -2.1809693682667999e-03) // 1
	(8.2526999999999984e-01 9.9904822158185780e-01 -2.1809693682667999e-03) // 2
	(3.0000000000000000e+00 9.9904822158185780e-01 -2.1809693682667999e-03) // 3
	(3.0000000000000000e+00 0.0000000000000000e+00 -2.1809693682667999e-03) // 4
	(8.2526999999999984e-01 0.0000000000000000e+00 -2.1809693682667999e-03) // 5
	(0.0000000000000000e+00 0.0000000000000000e+00  2.1809693682667999e-03) // 6
	(0.0000000000000000e+00 7.4812657000288885e-02  2.1809693682667999e-03) // 7
	(8.2526999999999984e-01 9.9904822158185780e-01  2.1809693682667999e-03) // 8
	(3.0000000000000000e+00 9.9904822158185780e-01  2.1809693682667999e-03) // 9
	(3.0000000000000000e+00 0.0000000000000000e+00  2.1809693682667999e-03) // 10
	(8.2526999999999984e-01 0.0000000000000000e+00  2.1809693682667999e-03) // 11
);

blocks
(	// Block 0
	hex (1 0 5 2  7  6 11  8) (750 28 1) simpleGrading ( 4 1 1)

	// Block 1
	hex (2 5 4 3  8 11 10  9) (181 28 1) simpleGrading ( 1 1 1)


);

edges
(
    spline 1 2
    (
		( 1.00000000e-04  7.48839299e-02 -5.00000000e-02)
 		( 2.00000000e-04  7.49588138e-02 -5.00000000e-02)
 		( 3.00000000e-04  7.50336978e-02 -5.00000000e-02)
 		( 4.00000000e-04  7.51085817e-02 -5.00000000e-02)
 		( 5.00000000e-04  7.52583496e-02 -5.00000000e-02)
 		( 6.00000000e-04  7.54830013e-02 -5.00000000e-02)
 		( 7.00000000e-04  7.56327692e-02 -5.00000000e-02)
 		( 8.00000000e-04  7.59323049e-02 -5.00000000e-02)
 		( 9.00000000e-04  7.61569567e-02 -5.00000000e-02)
 		( 9.90000000e-04  7.64564924e-02 -5.00000000e-02)
 		( 1.09000000e-03  7.68309121e-02 -5.00000000e-02)
 		( 1.19000000e-03  7.72053317e-02 -5.00000000e-02)
 		( 1.29000000e-03  7.75797514e-02 -5.00000000e-02)
 		( 1.39000000e-03  7.80290550e-02 -5.00000000e-02)
 		( 2.45200000e-02  1.90055414e-01 -5.00000000e-02)
 		( 3.44500000e-02  2.34162049e-01 -5.00000000e-02)
 		( 4.50600000e-02  2.77370076e-01 -5.00000000e-02)
 		( 5.73200000e-02  3.22749738e-01 -5.00000000e-02)
 		( 7.18900000e-02  3.71574060e-01 -5.00000000e-02)
 		( 8.94900000e-02  4.24666767e-01 -5.00000000e-02)
 		( 1.10960000e-01  4.82327393e-01 -5.00000000e-02)
 		( 1.37340000e-01  5.44780590e-01 -5.00000000e-02)
 		( 1.70000000e-01  6.11876591e-01 -5.00000000e-02)
 		( 2.10660000e-01  6.83091209e-01 -5.00000000e-02)
 		( 2.61610000e-01  7.57001647e-01 -5.00000000e-02)
 		( 3.25860000e-01  8.31211622e-01 -5.00000000e-02)
 		( 4.07410000e-01  9.01677400e-01 -5.00000000e-02)
 		( 5.11670000e-01  9.61509660e-01 -5.00000000e-02)
 		( 6.45970000e-01  1.00000000e+00 -5.00000000e-02)
	)

	spline 7 8 
	(
		(1.00000000e-04 7.48839299e-02 5.00000000e-02)
 		(2.00000000e-04 7.49588138e-02 5.00000000e-02)
 		(3.00000000e-04 7.50336978e-02 5.00000000e-02)
 		(4.00000000e-04 7.51085817e-02 5.00000000e-02)
 		(5.00000000e-04 7.52583496e-02 5.00000000e-02)
 		(6.00000000e-04 7.54830013e-02 5.00000000e-02)
 		(7.00000000e-04 7.56327692e-02 5.00000000e-02)
 		(8.00000000e-04 7.59323049e-02 5.00000000e-02)
 		(9.00000000e-04 7.61569567e-02 5.00000000e-02)
 		(9.90000000e-04 7.64564924e-02 5.00000000e-02)
 		(1.09000000e-03 7.68309121e-02 5.00000000e-02)
 		(1.19000000e-03 7.72053317e-02 5.00000000e-02)
 		(1.29000000e-03 7.75797514e-02 5.00000000e-02)
 		(1.39000000e-03 7.80290550e-02 5.00000000e-02)
 		(2.45200000e-02 1.90055414e-01 5.00000000e-02)
 		(3.44500000e-02 2.34162049e-01 5.00000000e-02)
 		(4.50600000e-02 2.77370076e-01 5.00000000e-02)
 		(5.73200000e-02 3.22749738e-01 5.00000000e-02)
 		(7.18900000e-02 3.71574060e-01 5.00000000e-02)
 		(8.94900000e-02 4.24666767e-01 5.00000000e-02)
 		(1.10960000e-01 4.82327393e-01 5.00000000e-02)
 		(1.37340000e-01 5.44780590e-01 5.00000000e-02)
 		(1.70000000e-01 6.11876591e-01 5.00000000e-02)
 		(2.10660000e-01 6.83091209e-01 5.00000000e-02)
 		(2.61610000e-01 7.57001647e-01 5.00000000e-02)
 		(3.25860000e-01 8.31211622e-01 5.00000000e-02)
 		(4.07410000e-01 9.01677400e-01 5.00000000e-02)
 		(5.11670000e-01 9.61509660e-01 5.00000000e-02)
 		(6.45970000e-01 1.00000000e+00 5.00000000e-02)
	)
);

boundary
(
    inlet
    {
        type patch;
        faces
        (
            (1 0 6 7)
        );
    }
    outlet
    {
        type patch;
        faces
        (
            (4 10 9 3)   
        );
    }
    nozzleCeiling
    {
        type wall;
        faces
        (
            (2 1 7 8)
        );
    }
    ambientCeiling
    {
        type patch;
        faces
        (
            (3 2 8 9)
        );
    }
    bottom
    {
        type symmetryPlane;
        faces
        (
            (0 5 11 6)   
            (5 4 10 11)  
        );
    }
    front
    {
        type wedge;
        faces
        (
            (1 0 5 2)    
            (2 5 4 3)    
        );
    }
    back
    {
        type wedge;
        faces
        (
            (7 6 11 8)
            (8 11 10 9)  
        );
    }
);

mergePatchPairs
(
    (front back)
);
