// COE 347 - FINAL PROJECT MESH (right)


FoamFile
{
    version  2.0;
    format   ascii;
    class    dictionary;
    object   blockMeshDict;
}

convertToMeters 1.0;

vertices
(
	(0.0000000000000000e+00 0.0000000000000000e+00 0.0000000000000000e+00) // 0
	(0.0000000000000000e+00 9.9904822158185780e-01 -4.3619387365336000e-02) // 1
	(1.0000000000000000e+02 1.3341289951004129e+01 -5.8249329887669687e-01) // 2
	(3.0000000000000000e+00 1.3341289951004129e+01 -5.8249329887669687e-01) // 3
	(3.0000000000000000e+00 0.0000000000000000e+00 0.0000000000000000e+00) // 4
	(1.0000000000000000e+02 0.0000000000000000e+00 0.0000000000000000e+00) // 5
	(0.0000000000000000e+00 0.0000000000000000e+00  0.0000000000000000e+00) // 6
	(0.0000000000000000e+00 9.9904822158185780e-01  4.3619387365336000e-02) // 7
	(1.0000000000000000e+02 1.3341289951004129e+01  5.8249329887669687e-01) // 8
	(3.0000000000000000e+00 1.3341289951004129e+01  5.8249329887669687e-01) // 9
	(3.0000000000000000e+00 0.0000000000000000e+00  0.0000000000000000e+00) // 10
	(1.0000000000000000e+02 0.0000000000000000e+00  0.0000000000000000e+00) // 11
);

blocks
(	// Block 0
	hex (1 0 5 2  7  6 11  8) (50 6667 1) simpleGrading ( 1 1 1)

	// Block 1
	hex (2 5 4 3  8 11 10  9) (50 -6467 1) simpleGrading ( 1 1 1)


);

edges
(
    spline 1 2
    (
		(1.21172465e-02 9.99048222e-01 -4.36193874e-02)
		(2.42344930e-02 1.00004727e+00 -4.36630068e-02)
		(3.63517394e-02 1.00104632e+00 -4.37066261e-02)
		(4.84689859e-02 1.00204537e+00 -4.37502455e-02)
		(6.05862324e-02 1.00404346e+00 -4.38374843e-02)
		(7.27034789e-02 1.00704061e+00 -4.39683425e-02)
		(8.48207253e-02 1.00903870e+00 -4.40555812e-02)
		(9.69379718e-02 1.01303490e+00 -4.42300588e-02)
		(1.09055218e-01 1.01603204e+00 -4.43609170e-02)
		(1.19960740e-01 1.02002823e+00 -4.45353945e-02)
		(1.32077987e-01 1.02502348e+00 -4.47534914e-02)
		(1.44195233e-01 1.03001872e+00 -4.49715884e-02)
		(1.56312480e-01 1.03501396e+00 -4.51896853e-02)
		(1.68429726e-01 1.04100825e+00 -4.54514016e-02)
		(2.97114884e+00 2.53558439e+00 -1.10706005e-01)
		(4.17439141e+00 3.12402379e+00 -1.36397824e-01)
		(5.46003126e+00 3.70047461e+00 -1.61566211e-01)
		(6.94560568e+00 4.30589784e+00 -1.87999560e-01)
		(8.71108849e+00 4.95727728e+00 -2.16439400e-01)
		(1.08437239e+01 5.66560246e+00 -2.47365546e-01)
		(1.34452967e+01 6.43486960e+00 -2.80952474e-01)
		(1.66418263e+01 7.26807581e+00 -3.17331043e-01)
		(2.05993190e+01 8.16322302e+00 -3.56414014e-01)
		(2.55261914e+01 9.11331788e+00 -3.97896052e-01)
		(3.16999285e+01 1.00993785e+01 -4.40948387e-01)
		(3.94852594e+01 1.10894353e+01 -4.84175200e-01)
		(4.93668739e+01 1.20295396e+01 -5.25221043e-01)
		(6.20003150e+01 1.28277792e+01 -5.60072934e-01)
		(7.82737771e+01 1.33412900e+01 -5.82493299e-01)
		)

		spline 7 8
		(
		(1.21172465e-02 9.99048222e-01 4.36193874e-02)
		(2.42344930e-02 1.00004727e+00 4.36630068e-02)
		(3.63517394e-02 1.00104632e+00 4.37066261e-02)
		(4.84689859e-02 1.00204537e+00 4.37502455e-02)
		(6.05862324e-02 1.00404346e+00 4.38374843e-02)
		(7.27034789e-02 1.00704061e+00 4.39683425e-02)
		(8.48207253e-02 1.00903870e+00 4.40555812e-02)
		(9.69379718e-02 1.01303490e+00 4.42300588e-02)
		(1.09055218e-01 1.01603204e+00 4.43609170e-02)
		(1.19960740e-01 1.02002823e+00 4.45353945e-02)
		(1.32077987e-01 1.02502348e+00 4.47534914e-02)
		(1.44195233e-01 1.03001872e+00 4.49715884e-02)
		(1.56312480e-01 1.03501396e+00 4.51896853e-02)
		(1.68429726e-01 1.04100825e+00 4.54514016e-02)
		(2.97114884e+00 2.53558439e+00 1.10706005e-01)
		(4.17439141e+00 3.12402379e+00 1.36397824e-01)
		(5.46003126e+00 3.70047461e+00 1.61566211e-01)
		(6.94560568e+00 4.30589784e+00 1.87999560e-01)
		(8.71108849e+00 4.95727728e+00 2.16439400e-01)
		(1.08437239e+01 5.66560246e+00 2.47365546e-01)
		(1.34452967e+01 6.43486960e+00 2.80952474e-01)
		(1.66418263e+01 7.26807581e+00 3.17331043e-01)
		(2.05993190e+01 8.16322302e+00 3.56414014e-01)
		(2.55261914e+01 9.11331788e+00 3.97896052e-01)
		(3.16999285e+01 1.00993785e+01 4.40948387e-01)
		(3.94852594e+01 1.10894353e+01 4.84175200e-01)
		(4.93668739e+01 1.20295396e+01 5.25221043e-01)
		(6.20003150e+01 1.28277792e+01 5.60072934e-01)
		(7.82737771e+01 1.33412900e+01 5.82493299e-01)

	)
);

boundary
(
    inlet
    {
        type patch;
        faces
        (
            (1 0 6 7)
        );
    }
    outlet
    {
        type patch;
        faces
        (
            (4 10 9 3)   
        );
    }
    nozzleCeiling
    {
        type wall;
        faces
        (
            (2 1 7 8)
        );
    }
    ambientCeiling
    {
        type patch;
        faces
        (
            (3 2 8 9)
        );
    }
    bottom
    {
        type symmetryPlane;
        faces
        (
            (0 5 11 6)   
            (5 4 10 11)  
        );
    }
    front
    {
        type wedge;
        faces
        (
            (1 0 5 2)    
            (2 5 4 3)    
        );
    }
    back
    {
        type wedge;
        faces
        (
            (7 6 11 8)
            (8 11 10 9)  
        );
    }
);

mergePatchPairs
(
    (front back)
);
