// COE 347 - FINAL PROJECT MESH (expansion scale: 1.2)


FoamFile
{
    version  2.0;
    format   ascii;
    class    dictionary;
    object   blockMeshDict;
}

convertToMeters 1.0;

vertices
(
	(0.0000000000000000e+00 0.0000000000000000e+00 0.0000000000000000e+00) // 0
	(0.0000000000000000e+00 4.9952411079092894e-02 -2.1809693682667999e-03) // 1
	(6.6949999999999998e-01 2.0460507577996445e-01 -8.9332505324208125e-03) // 2
	(8.7034999999999996e-01 2.0460507577996445e-01 -8.9332505324208125e-03) // 3
	(8.7034999999999996e-01 0.0000000000000000e+00 0.0000000000000000e+00) // 4
	(6.6949999999999998e-01 0.0000000000000000e+00 0.0000000000000000e+00) // 5
	(0.0000000000000000e+00 4.9952411079092894e-02 2.1809693682667999e-03) // 6
	(6.6949999999999998e-01 2.0460507577996445e-01 8.9332505324208125e-03) // 7
	(8.7034999999999996e-01 2.0460507577996445e-01 8.9332505324208125e-03) // 8
);

blocks
(	// Block 0
	hex (0 5 5 0 1 2 2 1) (231 1 75) simpleGrading (1 1 1)

	// Block 1
	hex (5 4 4 5 2 3 3 2) (69 1 75) simpleGrading (1 1 1)


);

edges
(
    spline 1 2
    (
		(5.00000000e-04 4.99524111e-02 -2.18096937e-03)
		(1.00000000e-03 4.99524111e-02 -2.18096937e-03)
		(1.50000000e-03 4.99524111e-02 -2.18096937e-03)
		(2.00000000e-03 5.00722969e-02 -2.18620369e-03)
		(2.50000000e-03 5.00722969e-02 -2.18620369e-03)
		(3.00000000e-03 5.01921827e-02 -2.19143802e-03)
		(3.50000000e-03 5.03120684e-02 -2.19667235e-03)
		(4.00000000e-03 5.04319542e-02 -2.20190667e-03)
		(4.50000000e-03 5.05518400e-02 -2.20714100e-03)
		(5.00000000e-03 5.07916116e-02 -2.21760965e-03)
		(5.40000000e-03 5.09114974e-02 -2.22284398e-03)
		(5.90000000e-03 5.11512689e-02 -2.23331263e-03)
		(6.50000000e-03 5.13910405e-02 -2.24378129e-03)
		(7.00000000e-03 5.15109263e-02 -2.24901561e-03)
		(9.07000000e-02 9.28715227e-02 -4.05485825e-03)
		(1.18100000e-01 1.05339644e-01 -4.59922820e-03)
		(1.43300000e-01 1.16009479e-01 -5.06508326e-03)
		(1.68800000e-01 1.25840114e-01 -5.49429803e-03)
		(1.95800000e-01 1.35311091e-01 -5.90780982e-03)
		(2.24800000e-01 1.44662182e-01 -6.31608729e-03)
		(2.56300000e-01 1.53653616e-01 -6.70866178e-03)
		(2.90900000e-01 1.62405279e-01 -7.09076761e-03)
		(3.29100000e-01 1.70797284e-01 -7.45717046e-03)
		(3.71500000e-01 1.78829632e-01 -7.80787034e-03)
		(4.18500000e-01 1.86142665e-01 -8.12716425e-03)
		(4.71000000e-01 1.92736383e-01 -8.41505221e-03)
		(5.29700000e-01 1.98251129e-01 -8.65583123e-03)
		(5.95600000e-01 2.02327246e-01 -8.83379833e-03)
		)

		spline 6 7
		(
		(5.00000000e-04 4.99524111e-02 2.18096937e-03)
		(1.00000000e-03 4.99524111e-02 2.18096937e-03)
		(1.50000000e-03 4.99524111e-02 2.18096937e-03)
		(2.00000000e-03 5.00722969e-02 2.18620369e-03)
		(2.50000000e-03 5.00722969e-02 2.18620369e-03)
		(3.00000000e-03 5.01921827e-02 2.19143802e-03)
		(3.50000000e-03 5.03120684e-02 2.19667235e-03)
		(4.00000000e-03 5.04319542e-02 2.20190667e-03)
		(4.50000000e-03 5.05518400e-02 2.20714100e-03)
		(5.00000000e-03 5.07916116e-02 2.21760965e-03)
		(5.40000000e-03 5.09114974e-02 2.22284398e-03)
		(5.90000000e-03 5.11512689e-02 2.23331263e-03)
		(6.50000000e-03 5.13910405e-02 2.24378129e-03)
		(7.00000000e-03 5.15109263e-02 2.24901561e-03)
		(9.07000000e-02 9.28715227e-02 4.05485825e-03)
		(1.18100000e-01 1.05339644e-01 4.59922820e-03)
		(1.43300000e-01 1.16009479e-01 5.06508326e-03)
		(1.68800000e-01 1.25840114e-01 5.49429803e-03)
		(1.95800000e-01 1.35311091e-01 5.90780982e-03)
		(2.24800000e-01 1.44662182e-01 6.31608729e-03)
		(2.56300000e-01 1.53653616e-01 6.70866178e-03)
		(2.90900000e-01 1.62405279e-01 7.09076761e-03)
		(3.29100000e-01 1.70797284e-01 7.45717046e-03)
		(3.71500000e-01 1.78829632e-01 7.80787034e-03)
		(4.18500000e-01 1.86142665e-01 8.12716425e-03)
		(4.71000000e-01 1.92736383e-01 8.41505221e-03)
		(5.29700000e-01 1.98251129e-01 8.65583123e-03)
		(5.95600000e-01 2.02327246e-01 8.83379833e-03)

	)
);

boundary
(
    inlet
    {
        type patch;
        faces
        (
            (0 6 1 0)
        );
    }
    outlet
    {
        type patch;
        faces
        (
            (4 8 3 4)   
        );
    }
    nozzleCeiling
    {
        type wall;
        faces
        (
            (6 7 2 1)
        );
    }
    ambientCeiling
    {
        type patch;
        faces
        (
            (7 8 3 2)
        );
    }
    front
    {
        type wedge;
        faces
        (
            (0 5 7 6)    
            (5 4 8 7)    
        );
    }
    back
    {
        type wedge;
        faces
        (
            (0 5 2 1)
            (5 4 3 2)  
        );
    }
);

mergePatchPairs
(
);