// COE 347 - FINAL PROJECT MESH (right)


FoamFile
{
    version  2.0;
    format   ascii;
    class    dictionary;
    object   blockMeshDict;
}

convertToMeters 1.0;

vertices
(
	(0.0000000000000000e+00 0.0000000000000000e+00 -5.0000000000000003e-02) // 0
	(0.0000000000000000e+00 7.4883929908641608e-02 -5.0000000000000003e-02) // 1
	(0.0000000000000000e+00 1.0000000000000000e+00 -5.0000000000000003e-02) // 2
	(8.2526999999999984e-01 1.0000000000000000e+00 -5.0000000000000003e-02) // 3
	(8.2526999999999984e-01 7.4883929908641608e-02 -5.0000000000000003e-02) // 4
	(8.2526999999999984e-01 0.0000000000000000e+00 -5.0000000000000003e-02) // 5
	(3.0000000000000000e+00 0.0000000000000000e+00 -5.0000000000000003e-02) // 6
	(3.0000000000000000e+00 7.4883929908641608e-02 -5.0000000000000003e-02) // 7
	(3.0000000000000000e+00 1.0000000000000000e+00 -5.0000000000000003e-02) // 8
	(0.0000000000000000e+00 0.0000000000000000e+00  5.0000000000000003e-02) // 9
	(0.0000000000000000e+00 7.4883929908641608e-02  5.0000000000000003e-02) // 10
	(0.0000000000000000e+00 1.0000000000000000e+00  5.0000000000000003e-02) // 11
	(8.2526999999999984e-01 1.0000000000000000e+00  5.0000000000000003e-02) // 12
	(8.2526999999999984e-01 7.4883929908641608e-02  5.0000000000000003e-02) // 13
	(8.2526999999999984e-01 0.0000000000000000e+00  5.0000000000000003e-02) // 14
	(3.0000000000000000e+00 0.0000000000000000e+00  5.0000000000000003e-02) // 15
	(3.0000000000000000e+00 7.4883929908641608e-02  5.0000000000000003e-02) // 16
	(3.0000000000000000e+00 1.0000000000000000e+00  5.0000000000000003e-02) // 17
);

blocks
(	// Block 0
	hex (1 2 5 6 10 11 14 15) (750.0 28.0814737157406 1) simpleGrading ( 4 1 1)

	// Block 1
	hex (5 6 7 8 14 15 16 17) (0.0 28.0814737157406 1) simpleGrading ( 1 1 1)

	// Block 2
	hex (2 3 4 5 11 12 13 14) (750.0 231.2790175228396 1) simpleGrading ( 4 1 1)

	// Block 3
	hex (4 5 8 9 13 14 17 18) (0.0 231.2790175228396 1) simpleGrading ( 1 1 1)


);

edges
(
    simpleSpline 2 4 
    (
		( 1.00000000e-04  7.48839299e-02 -5.00000000e-02)
 		( 2.00000000e-04  7.49588138e-02 -5.00000000e-02)
 		( 3.00000000e-04  7.50336978e-02 -5.00000000e-02)
 		( 4.00000000e-04  7.51085817e-02 -5.00000000e-02)
 		( 5.00000000e-04  7.52583496e-02 -5.00000000e-02)
 		( 6.00000000e-04  7.54830013e-02 -5.00000000e-02)
 		( 7.00000000e-04  7.56327692e-02 -5.00000000e-02)
 		( 8.00000000e-04  7.59323049e-02 -5.00000000e-02)
 		( 9.00000000e-04  7.61569567e-02 -5.00000000e-02)
 		( 9.90000000e-04  7.64564924e-02 -5.00000000e-02)
 		( 1.09000000e-03  7.68309121e-02 -5.00000000e-02)
 		( 1.19000000e-03  7.72053317e-02 -5.00000000e-02)
 		( 1.29000000e-03  7.75797514e-02 -5.00000000e-02)
 		( 1.39000000e-03  7.80290550e-02 -5.00000000e-02)
 		( 2.45200000e-02  1.90055414e-01 -5.00000000e-02)
 		( 3.44500000e-02  2.34162049e-01 -5.00000000e-02)
 		( 4.50600000e-02  2.77370076e-01 -5.00000000e-02)
 		( 5.73200000e-02  3.22749738e-01 -5.00000000e-02)
 		( 7.18900000e-02  3.71574060e-01 -5.00000000e-02)
 		( 8.94900000e-02  4.24666767e-01 -5.00000000e-02)
 		( 1.10960000e-01  4.82327393e-01 -5.00000000e-02)
 		( 1.37340000e-01  5.44780590e-01 -5.00000000e-02)
 		( 1.70000000e-01  6.11876591e-01 -5.00000000e-02)
 		( 2.10660000e-01  6.83091209e-01 -5.00000000e-02)
 		( 2.61610000e-01  7.57001647e-01 -5.00000000e-02)
 		( 3.25860000e-01  8.31211622e-01 -5.00000000e-02)
 		( 4.07410000e-01  9.01677400e-01 -5.00000000e-02)
 		( 5.11670000e-01  9.61509660e-01 -5.00000000e-02)
 		( 6.45970000e-01  1.00000000e+00 -5.00000000e-02)
	)

	simpleSpline 11 13 
	(
		(1.00000000e-04 7.48839299e-02 5.00000000e-02)
 		(2.00000000e-04 7.49588138e-02 5.00000000e-02)
 		(3.00000000e-04 7.50336978e-02 5.00000000e-02)
 		(4.00000000e-04 7.51085817e-02 5.00000000e-02)
 		(5.00000000e-04 7.52583496e-02 5.00000000e-02)
 		(6.00000000e-04 7.54830013e-02 5.00000000e-02)
 		(7.00000000e-04 7.56327692e-02 5.00000000e-02)
 		(8.00000000e-04 7.59323049e-02 5.00000000e-02)
 		(9.00000000e-04 7.61569567e-02 5.00000000e-02)
 		(9.90000000e-04 7.64564924e-02 5.00000000e-02)
 		(1.09000000e-03 7.68309121e-02 5.00000000e-02)
 		(1.19000000e-03 7.72053317e-02 5.00000000e-02)
 		(1.29000000e-03 7.75797514e-02 5.00000000e-02)
 		(1.39000000e-03 7.80290550e-02 5.00000000e-02)
 		(2.45200000e-02 1.90055414e-01 5.00000000e-02)
 		(3.44500000e-02 2.34162049e-01 5.00000000e-02)
 		(4.50600000e-02 2.77370076e-01 5.00000000e-02)
 		(5.73200000e-02 3.22749738e-01 5.00000000e-02)
 		(7.18900000e-02 3.71574060e-01 5.00000000e-02)
 		(8.94900000e-02 4.24666767e-01 5.00000000e-02)
 		(1.10960000e-01 4.82327393e-01 5.00000000e-02)
 		(1.37340000e-01 5.44780590e-01 5.00000000e-02)
 		(1.70000000e-01 6.11876591e-01 5.00000000e-02)
 		(2.10660000e-01 6.83091209e-01 5.00000000e-02)
 		(2.61610000e-01 7.57001647e-01 5.00000000e-02)
 		(3.25860000e-01 8.31211622e-01 5.00000000e-02)
 		(4.07410000e-01 9.01677400e-01 5.00000000e-02)
 		(5.11670000e-01 9.61509660e-01 5.00000000e-02)
 		(6.45970000e-01 1.00000000e+00 5.00000000e-02)
	)
)