// COE 347 - FINAL PROJECT MESH (right)


FoamFile
{
    version  2.0;
    format   ascii;
    class    dictionary;
    object   blockMeshDict;
}

convertToMeters 1.0;

vertices
(
	(0.0000000000000000e+00 0.0000000000000000e+00 0.0000000000000000e+00) // 0
	(0.0000000000000000e+00 9.9904822158185780e-01 -4.3619387365336000e-02) // 1
	(8.2526999999999990e+00 1.3341289951004129e+01 -5.8249329887669687e-01) // 2
	(1.0000000000000000e+01 1.3341289951004129e+01 -5.8249329887669687e-01) // 3
	(1.0000000000000000e+01 0.0000000000000000e+00 0.0000000000000000e+00) // 4
	(8.2526999999999990e+00 0.0000000000000000e+00 0.0000000000000000e+00) // 5
	(0.0000000000000000e+00 9.9904822158185780e-01 4.3619387365336000e-02) // 6
	(8.2526999999999990e+00 1.3341289951004129e+01 5.8249329887669687e-01) // 7
	(1.0000000000000000e+01 1.3341289951004129e+01 5.8249329887669687e-01) // 8
);

blocks
(	// Block 0
	hex (0 1) (5 2) (50 165 1) simpleGrading (1 1 1)

	// Block 1
	hex (5 2) (4 3) (50 35 1) simpleGrading (1 1 1)


);

edges
(
    spline 1 2
    (
		(1.00000000e-03 9.99048222e-01 -4.36193874e-02)
		(2.00000000e-03 1.00004727e+00 -4.36630068e-02)
		(3.00000000e-03 1.00104632e+00 -4.37066261e-02)
		(4.00000000e-03 1.00204537e+00 -4.37502455e-02)
		(5.00000000e-03 1.00404346e+00 -4.38374843e-02)
		(6.00000000e-03 1.00704061e+00 -4.39683425e-02)
		(7.00000000e-03 1.00903870e+00 -4.40555812e-02)
		(8.00000000e-03 1.01303490e+00 -4.42300588e-02)
		(9.00000000e-03 1.01603204e+00 -4.43609170e-02)
		(9.90000000e-03 1.02002823e+00 -4.45353945e-02)
		(1.09000000e-02 1.02502348e+00 -4.47534914e-02)
		(1.19000000e-02 1.03001872e+00 -4.49715884e-02)
		(1.29000000e-02 1.03501396e+00 -4.51896853e-02)
		(1.39000000e-02 1.04100825e+00 -4.54514016e-02)
		(2.45200000e-01 2.53558439e+00 -1.10706005e-01)
		(3.44500000e-01 3.12402379e+00 -1.36397824e-01)
		(4.50600000e-01 3.70047461e+00 -1.61566211e-01)
		(5.73200000e-01 4.30589784e+00 -1.87999560e-01)
		(7.18900000e-01 4.95727728e+00 -2.16439400e-01)
		(8.94900000e-01 5.66560246e+00 -2.47365546e-01)
		(1.10960000e+00 6.43486960e+00 -2.80952474e-01)
		(1.37340000e+00 7.26807581e+00 -3.17331043e-01)
		(1.70000000e+00 8.16322302e+00 -3.56414014e-01)
		(2.10660000e+00 9.11331788e+00 -3.97896052e-01)
		(2.61610000e+00 1.00993785e+01 -4.40948387e-01)
		(3.25860000e+00 1.10894353e+01 -4.84175200e-01)
		(4.07410000e+00 1.20295396e+01 -5.25221043e-01)
		(5.11670000e+00 1.28277792e+01 -5.60072934e-01)
		(6.45970000e+00 1.33412900e+01 -5.82493299e-01)
		)

		spline 6 7
		(
		(1.00000000e-03 9.99048222e-01 4.36193874e-02)
		(2.00000000e-03 1.00004727e+00 4.36630068e-02)
		(3.00000000e-03 1.00104632e+00 4.37066261e-02)
		(4.00000000e-03 1.00204537e+00 4.37502455e-02)
		(5.00000000e-03 1.00404346e+00 4.38374843e-02)
		(6.00000000e-03 1.00704061e+00 4.39683425e-02)
		(7.00000000e-03 1.00903870e+00 4.40555812e-02)
		(8.00000000e-03 1.01303490e+00 4.42300588e-02)
		(9.00000000e-03 1.01603204e+00 4.43609170e-02)
		(9.90000000e-03 1.02002823e+00 4.45353945e-02)
		(1.09000000e-02 1.02502348e+00 4.47534914e-02)
		(1.19000000e-02 1.03001872e+00 4.49715884e-02)
		(1.29000000e-02 1.03501396e+00 4.51896853e-02)
		(1.39000000e-02 1.04100825e+00 4.54514016e-02)
		(2.45200000e-01 2.53558439e+00 1.10706005e-01)
		(3.44500000e-01 3.12402379e+00 1.36397824e-01)
		(4.50600000e-01 3.70047461e+00 1.61566211e-01)
		(5.73200000e-01 4.30589784e+00 1.87999560e-01)
		(7.18900000e-01 4.95727728e+00 2.16439400e-01)
		(8.94900000e-01 5.66560246e+00 2.47365546e-01)
		(1.10960000e+00 6.43486960e+00 2.80952474e-01)
		(1.37340000e+00 7.26807581e+00 3.17331043e-01)
		(1.70000000e+00 8.16322302e+00 3.56414014e-01)
		(2.10660000e+00 9.11331788e+00 3.97896052e-01)
		(2.61610000e+00 1.00993785e+01 4.40948387e-01)
		(3.25860000e+00 1.10894353e+01 4.84175200e-01)
		(4.07410000e+00 1.20295396e+01 5.25221043e-01)
		(5.11670000e+00 1.28277792e+01 5.60072934e-01)
		(6.45970000e+00 1.33412900e+01 5.82493299e-01)

	)
);

boundary
(
    inlet
    {
        type patch;
        faces
        (
            (0 1 6 0)
        );
    }
    outlet
    {
        type patch;
        faces
        (
            (4 3 8 4)   
        );
    }
    nozzleCeiling
    {
        type wall;
        faces
        (
            (2 1 6 7)
        );
    }
    ambientCeiling
    {
        type patch;
        faces
        (
            (3 2 7 8)
        );
    }
    front
    {
        type wedge;
        faces
        (
            (1 0 5 2)    
            (2 5 4 3)    
        );
    }
    back
    {
        type wedge;
        faces
        (
            (6 0 5 7)
            (7 5 4 8)  
        );
    }
);

mergePatchPairs
(
    (front back)
);
