// COE 347 - FINAL PROJECT MESH (right)


FoamFile
{
    version  2.0;
    format   ascii;
    class    dictionary;
    object   blockMeshDict;
}

convertToMeters 1.0;

vertices
(
	(0.0000000000000000e+00 0.0000000000000000e+00 0.0000000000000000e+00) // 0
	(0.0000000000000000e+00 7.4812657000288885e-02 -3.2663911461237082e-03) // 1
	(8.2526999999999984e-01 9.9904822158185780e-01 -4.3619387365336000e-02) // 2
	(3.0000000000000000e+00 9.9904822158185780e-01 -4.3619387365336000e-02) // 3
	(3.0000000000000000e+00 0.0000000000000000e+00 0.0000000000000000e+00) // 4
	(8.2526999999999984e-01 0.0000000000000000e+00 0.0000000000000000e+00) // 5
	(0.0000000000000000e+00 0.0000000000000000e+00  0.0000000000000000e+00) // 6
	(0.0000000000000000e+00 7.4812657000288885e-02  3.2663911461237082e-03) // 7
	(8.2526999999999984e-01 9.9904822158185780e-01  4.3619387365336000e-02) // 8
	(3.0000000000000000e+00 9.9904822158185780e-01  4.3619387365336000e-02) // 9
	(3.0000000000000000e+00 0.0000000000000000e+00  0.0000000000000000e+00) // 10
	(8.2526999999999984e-01 0.0000000000000000e+00  0.0000000000000000e+00) // 11
);

blocks
(	// Block 0
	hex (1 0 5 2  7  6 11  8) (28 750 1) simpleGrading ( 4 1 1)

	// Block 1
	hex (2 5 4 3  8 11 10  9) (28 181 1) simpleGrading ( 1 1 1)


);

edges
(
    spline 1 2
    (
		(1.00000000e-04 7.48126570e-02 -3.26639115e-03)
		(2.00000000e-04 7.48874697e-02 -3.26965754e-03)
		(3.00000000e-04 7.49622823e-02 -3.27292393e-03)
		(4.00000000e-04 7.50370950e-02 -3.27619032e-03)
		(5.00000000e-04 7.51867203e-02 -3.28272310e-03)
		(6.00000000e-04 7.54111583e-02 -3.29252228e-03)
		(7.00000000e-04 7.55607836e-02 -3.29905506e-03)
		(8.00000000e-04 7.58600342e-02 -3.31212062e-03)
		(9.00000000e-04 7.60844722e-02 -3.32191980e-03)
		(9.90000000e-04 7.63837228e-02 -3.33498536e-03)
		(1.09000000e-03 7.67577861e-02 -3.35131732e-03)
		(1.19000000e-03 7.71318494e-02 -3.36764927e-03)
		(1.29000000e-03 7.75059127e-02 -3.38398123e-03)
		(1.39000000e-03 7.79547886e-02 -3.40357957e-03)
		(2.45200000e-02 1.89874523e-01 -8.29010073e-03)
		(3.44500000e-02 2.33939178e-01 -1.02140051e-02)
		(4.50600000e-02 2.77106082e-01 -1.20987128e-02)
		(5.73200000e-02 3.22442552e-01 -1.40781458e-02)
		(7.18900000e-02 3.71220404e-01 -1.62078329e-02)
		(8.94900000e-02 4.24262578e-01 -1.85237042e-02)
		(1.10960000e-01 4.81868324e-01 -2.10388254e-02)
		(1.37340000e-01 5.44262080e-01 -2.37629956e-02)
		(1.70000000e-01 6.11294220e-01 -2.66896821e-02)
		(2.10660000e-01 6.82441057e-01 -2.97960200e-02)
		(2.61610000e-01 7.56281150e-01 -3.30199481e-02)
		(3.25860000e-01 8.30420493e-01 -3.62569417e-02)
		(4.07410000e-01 9.00819203e-01 -3.93306158e-02)
		(5.11670000e-01 9.60594516e-01 -4.19404623e-02)
		(6.45970000e-01 9.99048222e-01 -4.36193874e-02)
		)

		spline 7 8
		(
		(1.00000000e-04 7.48126570e-02 3.26639115e-03)
		(2.00000000e-04 7.48874697e-02 3.26965754e-03)
		(3.00000000e-04 7.49622823e-02 3.27292393e-03)
		(4.00000000e-04 7.50370950e-02 3.27619032e-03)
		(5.00000000e-04 7.51867203e-02 3.28272310e-03)
		(6.00000000e-04 7.54111583e-02 3.29252228e-03)
		(7.00000000e-04 7.55607836e-02 3.29905506e-03)
		(8.00000000e-04 7.58600342e-02 3.31212062e-03)
		(9.00000000e-04 7.60844722e-02 3.32191980e-03)
		(9.90000000e-04 7.63837228e-02 3.33498536e-03)
		(1.09000000e-03 7.67577861e-02 3.35131732e-03)
		(1.19000000e-03 7.71318494e-02 3.36764927e-03)
		(1.29000000e-03 7.75059127e-02 3.38398123e-03)
		(1.39000000e-03 7.79547886e-02 3.40357957e-03)
		(2.45200000e-02 1.89874523e-01 8.29010073e-03)
		(3.44500000e-02 2.33939178e-01 1.02140051e-02)
		(4.50600000e-02 2.77106082e-01 1.20987128e-02)
		(5.73200000e-02 3.22442552e-01 1.40781458e-02)
		(7.18900000e-02 3.71220404e-01 1.62078329e-02)
		(8.94900000e-02 4.24262578e-01 1.85237042e-02)
		(1.10960000e-01 4.81868324e-01 2.10388254e-02)
		(1.37340000e-01 5.44262080e-01 2.37629956e-02)
		(1.70000000e-01 6.11294220e-01 2.66896821e-02)
		(2.10660000e-01 6.82441057e-01 2.97960200e-02)
		(2.61610000e-01 7.56281150e-01 3.30199481e-02)
		(3.25860000e-01 8.30420493e-01 3.62569417e-02)
		(4.07410000e-01 9.00819203e-01 3.93306158e-02)
		(5.11670000e-01 9.60594516e-01 4.19404623e-02)
		(6.45970000e-01 9.99048222e-01 4.36193874e-02)

	)
);

boundary
(
    inlet
    {
        type patch;
        faces
        (
            (1 0 6 7)
        );
    }
    outlet
    {
        type patch;
        faces
        (
            (4 10 9 3)   
        );
    }
    nozzleCeiling
    {
        type wall;
        faces
        (
            (2 1 7 8)
        );
    }
    ambientCeiling
    {
        type patch;
        faces
        (
            (3 2 8 9)
        );
    }
    bottom
    {
        type symmetryPlane;
        faces
        (
            (0 5 11 6)   
            (5 4 10 11)  
        );
    }
    front
    {
        type wedge;
        faces
        (
            (1 0 5 2)    
            (2 5 4 3)    
        );
    }
    back
    {
        type wedge;
        faces
        (
            (7 6 11 8)
            (8 11 10 9)  
        );
    }
);

mergePatchPairs
(
    (front back)
);
