/*--------------------------------*- C++ -*----------------------------------*\
  =========                 |
  \\      /  F ield         | OpenFOAM: The Open Source CFD Toolbox
   \\    /   O peration     | Website:  https://openfoam.org
    \\  /    A nd           | Version:  7
     \\/     M anipulation  |
\*---------------------------------------------------------------------------*/
FoamFile
{
    version     2.0;
    format      ascii;
    class       dictionary;
    location    "system";
    object      sample;
}
// * * * * * * * * * * * * * * * * * * * * * * * * * * * * * * * * * * * * * //

type sets;
libs            ("libsampling.so");

interpolationScheme cell;

setFormat       raw;

writeControl    writeTime; // this ensures that it's writing only at writeInterval

sets
(

    pre 
    {
        type    lineCell;
        axis    xyz;
        start   (0.6679177215189873 0 0);
        end     (0.6679177215189873 0.179 0);
    }
    post
    {
        type    lineCell;
        axis    xyz;
        start   (0.6710822784810127 0 0);
        end     (0.6710822784810127 0.179 0);
    }
);

fields          ( p U );


// ************************************************************************* //
