// COE 347 - FINAL PROJECT MESH (expansion scale: 1.1)


FoamFile
{
    version  2.0;
    format   ascii;
    class    dictionary;
    object   blockMeshDict;
}

convertToMeters 1.0;

vertices
(
	(0.0000000000000000e+00 0.0000000000000000e+00 0.0000000000000000e+00) // 0
	(0.0000000000000000e+00 4.9952411079092894e-02 -2.1809693682667999e-03) // 1
	(6.6949999999999998e-01 1.9171735372155851e-01 -8.3705604354079796e-03) // 2
	(9.9999867499999995e-01 1.9171735372155851e-01 -8.3705604354079796e-03) // 3
	(9.9999867499999995e-01 0.0000000000000000e+00 0.0000000000000000e+00) // 4
	(6.6949999999999998e-01 0.0000000000000000e+00 0.0000000000000000e+00) // 5
	(0.0000000000000000e+00 4.9952411079092894e-02 2.1809693682667999e-03) // 6
	(6.6949999999999998e-01 1.9171735372155851e-01 8.3705604354079796e-03) // 7
	(9.9999867499999995e-01 1.9171735372155851e-01 8.3705604354079796e-03) // 8
);

blocks
(	// Block 0
	hex (0 5 5 0 1 2 2 1) (423 1 158) simpleGrading (1 1 1)

	// Block 1
	hex (5 4 4 5 2 3 3 2) (209 1 158) simpleGrading (1 1 1)


);

edges
(
    spline 1 2
    (
		(5.00000000e-04 4.99524111e-02 -2.18096937e-03)
		(1.00000000e-03 4.99524111e-02 -2.18096937e-03)
		(1.50000000e-03 4.99524111e-02 -2.18096937e-03)
		(2.00000000e-03 5.00623064e-02 -2.18576750e-03)
		(2.50000000e-03 5.00623064e-02 -2.18576750e-03)
		(3.00000000e-03 5.01722017e-02 -2.19056563e-03)
		(3.50000000e-03 5.02820970e-02 -2.19536377e-03)
		(4.00000000e-03 5.03919923e-02 -2.20016190e-03)
		(4.50000000e-03 5.05018876e-02 -2.20496003e-03)
		(5.00000000e-03 5.07216782e-02 -2.21455630e-03)
		(5.40000000e-03 5.08315735e-02 -2.21935443e-03)
		(5.90000000e-03 5.10513641e-02 -2.22895069e-03)
		(6.50000000e-03 5.12711547e-02 -2.23854696e-03)
		(7.00000000e-03 5.13810500e-02 -2.24334509e-03)
		(9.07000000e-02 8.92949300e-02 -3.89870084e-03)
		(1.18100000e-01 1.00724042e-01 -4.39770663e-03)
		(1.43300000e-01 1.10504724e-01 -4.82474044e-03)
		(1.68800000e-01 1.19516139e-01 -5.21818731e-03)
		(1.95800000e-01 1.28197868e-01 -5.59723979e-03)
		(2.24800000e-01 1.36769702e-01 -5.97149413e-03)
		(2.56300000e-01 1.45011849e-01 -6.33135408e-03)
		(2.90900000e-01 1.53034207e-01 -6.68161776e-03)
		(3.29100000e-01 1.60726878e-01 -7.01748704e-03)
		(3.71500000e-01 1.68089863e-01 -7.33896192e-03)
		(4.18500000e-01 1.74793477e-01 -7.63164801e-03)
		(4.71000000e-01 1.80837719e-01 -7.89554531e-03)
		(5.29700000e-01 1.85892903e-01 -8.11625941e-03)
		(5.95600000e-01 1.89629343e-01 -8.27939592e-03)
		)

		spline 6 7
		(
		(5.00000000e-04 4.99524111e-02 2.18096937e-03)
		(1.00000000e-03 4.99524111e-02 2.18096937e-03)
		(1.50000000e-03 4.99524111e-02 2.18096937e-03)
		(2.00000000e-03 5.00623064e-02 2.18576750e-03)
		(2.50000000e-03 5.00623064e-02 2.18576750e-03)
		(3.00000000e-03 5.01722017e-02 2.19056563e-03)
		(3.50000000e-03 5.02820970e-02 2.19536377e-03)
		(4.00000000e-03 5.03919923e-02 2.20016190e-03)
		(4.50000000e-03 5.05018876e-02 2.20496003e-03)
		(5.00000000e-03 5.07216782e-02 2.21455630e-03)
		(5.40000000e-03 5.08315735e-02 2.21935443e-03)
		(5.90000000e-03 5.10513641e-02 2.22895069e-03)
		(6.50000000e-03 5.12711547e-02 2.23854696e-03)
		(7.00000000e-03 5.13810500e-02 2.24334509e-03)
		(9.07000000e-02 8.92949300e-02 3.89870084e-03)
		(1.18100000e-01 1.00724042e-01 4.39770663e-03)
		(1.43300000e-01 1.10504724e-01 4.82474044e-03)
		(1.68800000e-01 1.19516139e-01 5.21818731e-03)
		(1.95800000e-01 1.28197868e-01 5.59723979e-03)
		(2.24800000e-01 1.36769702e-01 5.97149413e-03)
		(2.56300000e-01 1.45011849e-01 6.33135408e-03)
		(2.90900000e-01 1.53034207e-01 6.68161776e-03)
		(3.29100000e-01 1.60726878e-01 7.01748704e-03)
		(3.71500000e-01 1.68089863e-01 7.33896192e-03)
		(4.18500000e-01 1.74793477e-01 7.63164801e-03)
		(4.71000000e-01 1.80837719e-01 7.89554531e-03)
		(5.29700000e-01 1.85892903e-01 8.11625941e-03)
		(5.95600000e-01 1.89629343e-01 8.27939592e-03)

	)
);

boundary
(
    inlet
    {
        type patch;
        faces
        (
            (0 6 1 0)
        );
    }
    outlet
    {
        type patch;
        faces
        (
            (4 8 3 4)   
        );
    }
    nozzleCeiling
    {
        type wall;
        faces
        (
            (6 7 2 1)
        );
    }
    ambientCeiling
    {
        type patch;
        faces
        (
            (7 8 3 2)
        );
    }
    front
    {
        type wedge;
        faces
        (
            (0 5 7 6)    
            (5 4 8 7)    
        );
    }
    back
    {
        type wedge;
        faces
        (
            (0 5 2 1)
            (5 4 3 2)  
        );
    }
);

mergePatchPairs
(
);